Version 4
SHEET 1 2176 1072
WIRE 400 -416 400 -448
WIRE 400 -416 0 -416
WIRE 672 -416 400 -416
WIRE 1440 -416 1440 -448
WIRE 1440 -416 1104 -416
WIRE 1568 -416 1440 -416
WIRE 1760 -416 1568 -416
WIRE 576 -288 560 -288
WIRE 656 -288 640 -288
WIRE 1152 -288 1136 -288
WIRE 1232 -288 1216 -288
WIRE 432 -272 400 -272
WIRE 528 -272 528 -304
WIRE 528 -272 496 -272
WIRE 1248 -272 1248 -304
WIRE 1280 -272 1248 -272
WIRE 1376 -272 1344 -272
WIRE 400 -240 400 -272
WIRE 1376 -240 1376 -272
WIRE 560 -224 560 -288
WIRE 576 -224 560 -224
WIRE 656 -224 656 -288
WIRE 656 -224 624 -224
WIRE 1136 -224 1136 -288
WIRE 1152 -224 1136 -224
WIRE 1232 -224 1232 -288
WIRE 1232 -224 1200 -224
WIRE 0 -192 0 -416
WIRE 528 -176 528 -272
WIRE 576 -176 576 -224
WIRE 624 -176 624 -224
WIRE 672 -176 672 -416
WIRE 1104 -176 1104 -416
WIRE 1152 -176 1152 -224
WIRE 1200 -176 1200 -224
WIRE 1248 -176 1248 -272
WIRE 1568 -160 1568 -416
WIRE 1760 -160 1760 -416
WIRE 480 -96 448 -96
WIRE 1344 -96 1296 -96
WIRE 848 -64 768 -64
WIRE 1008 -64 928 -64
WIRE 480 -48 448 -48
WIRE 1344 -48 1296 -48
WIRE 0 96 0 -112
WIRE 576 96 576 48
WIRE 672 96 672 48
WIRE 1104 96 1104 48
WIRE 1200 96 1200 48
WIRE 1568 96 1568 -96
WIRE 1760 96 1760 -80
WIRE 96 336 32 336
WIRE 208 336 176 336
WIRE 1952 336 1920 336
WIRE 1968 336 1952 336
WIRE 32 368 32 336
WIRE 1920 400 1920 336
WIRE -272 432 -272 400
WIRE 96 464 32 464
WIRE 208 464 176 464
WIRE 32 496 32 464
WIRE 1920 512 1920 480
WIRE -272 560 -272 512
WIRE 96 592 32 592
WIRE 208 592 176 592
WIRE 32 624 32 592
WIRE 96 720 32 720
WIRE 208 720 176 720
WIRE 32 752 32 720
FLAG 0 96 0
FLAG -272 560 0
FLAG 32 368 0
FLAG -272 400 Vcc
FLAG 208 336 PWM_A
FLAG 528 -304 Vcc
FLAG 576 96 0
FLAG 400 -240 0
FLAG 672 96 0
FLAG 1104 96 0
FLAG 1200 96 0
FLAG 1248 -304 Vcc
FLAG 1376 -240 0
FLAG 1568 96 0
FLAG 32 496 0
FLAG 208 464 PWM_~A
FLAG 1760 96 0
FLAG 32 624 0
FLAG 208 592 PWM_B
FLAG 32 752 0
FLAG 208 720 PWM_~B
FLAG 1920 512 0
FLAG 400 -448 in
FLAG 1440 -448 out
FLAG 1952 336 theoretical
FLAG 448 -96 PWM_A
FLAG 448 -48 PWM_~A
FLAG 1344 -48 PWM_B
FLAG 1344 -96 PWM_~B
SYMBOL voltage 0 -208 R0
WINDOW 123 0 0 Left 0
WINDOW 39 0 0 Left 0
SYMATTR InstName V1
SYMATTR Value {V}
SYMBOL voltage -272 416 R0
WINDOW 3 26 95 Left 2
WINDOW 123 0 0 Left 0
WINDOW 39 0 0 Left 0
SYMATTR Value 5
SYMATTR InstName V2
SYMBOL cap 640 -304 R90
WINDOW 0 0 32 VBottom 2
WINDOW 3 32 32 VTop 2
SYMATTR InstName C1
SYMATTR Value 100n
SYMBOL cap 496 -288 R90
WINDOW 0 0 32 VBottom 2
WINDOW 3 32 32 VTop 2
SYMATTR InstName C2
SYMATTR Value 10µ
SYMBOL ind 832 -48 R270
WINDOW 0 32 56 VTop 2
WINDOW 3 5 56 VBottom 2
SYMATTR InstName L1
SYMATTR Value {L}
SYMBOL voltage 192 336 R90
WINDOW 3 46 128 VLeft 2
WINDOW 123 0 0 Left 0
WINDOW 39 0 0 Left 0
WINDOW 0 -47 38 VRight 2
SYMATTR Value PULSE(0 5 0 1n 1n {Da/Fsw - DeadTime} {1/Fsw})
SYMATTR InstName V3
SYMBOL AutoGenerated\\LMG5200_TRANS 624 -64 R0
WINDOW 0 113 -116 Bottom 2
WINDOW 3 -140 194 Top 2
WINDOW 39 -143 227 Top 2
SYMATTR InstName U1
SYMBOL AutoGenerated\\LMG5200_TRANS 1152 -64 M0
WINDOW 0 113 -116 Bottom 2
WINDOW 3 -140 194 Top 2
WINDOW 39 -143 227 Top 2
SYMATTR InstName U2
SYMBOL cap 1152 -304 M90
WINDOW 0 0 32 VBottom 2
WINDOW 3 32 32 VTop 2
SYMATTR InstName C3
SYMATTR Value 100n
SYMBOL cap 1280 -288 M90
WINDOW 0 0 32 VBottom 2
WINDOW 3 32 32 VTop 2
SYMATTR InstName C5
SYMATTR Value 10µ
SYMBOL voltage 192 464 R90
WINDOW 3 46 128 VLeft 2
WINDOW 123 0 0 Left 0
WINDOW 39 0 0 Left 0
WINDOW 0 -47 38 VRight 2
SYMATTR Value PULSE(0 5 {Da/Fsw} 1n 1n {(1-Da)/Fsw - DeadTime} {1/Fsw})
SYMATTR InstName V4
SYMBOL cap 1552 -160 R0
SYMATTR InstName C6
SYMATTR Value 20µ
SYMBOL res 1744 -176 R0
SYMATTR InstName R1
SYMATTR Value {R_L}
SYMBOL voltage 192 592 R90
WINDOW 3 46 128 VLeft 2
WINDOW 123 0 0 Left 0
WINDOW 39 0 0 Left 0
WINDOW 0 -47 38 VRight 2
SYMATTR Value PULSE(0 5 0 1n 1n {Db/Fsw - DeadTime} {1/Fsw})
SYMATTR InstName V5
SYMBOL voltage 192 720 R90
WINDOW 3 46 128 VLeft 2
WINDOW 123 0 0 Left 0
WINDOW 39 0 0 Left 0
WINDOW 0 -47 38 VRight 2
SYMATTR Value PULSE(0 5 {Db/Fsw} 1n 1n {(1-Db)/Fsw - DeadTime} {1/Fsw})
SYMATTR InstName V6
SYMBOL bv 1920 384 R0
SYMATTR InstName B1
SYMATTR Value V=V(in)*Da/(1-Db)
TEXT 1024 328 Left 2 !.tran 0 3m 1.5m startup uic
TEXT 1024 728 Left 2 !.options abstol=1e-10\n.options cshunt=1e-15\n.options gmin=1e-10 \n.options reltol=0.003
TEXT 1024 424 Left 2 !.param Da=0.5\n.param Db=0\n;.param Da table(Dx,1,0.25,2,0.5,3,0.75,4,0.75,5,0.75,6,0.75,7,1,8,1,9,1)\n;.param Db table(Dx,1,0,2,0,3,0,4,0.15,5,0.25,6,0.35,7,0.25,8,0.4,9,0.5)\n.param Fsw=100k\n.param DeadTime=8n
TEXT 1024 616 Left 2 !.param L=57.8u\n;.param V=17\n.param R_L=2
TEXT 1024 376 Left 2 !.step param V 18 20 1
TEXT 1024 864 Left 2 !.meas TRAN AVGVOUT AVG V(out)\n.meas TRAN POUT AVG V(out)*I(R1)\n.meas TRAN PIN AVG V(in)*I(V1)
