Version 4
SHEET 1 880 680
WIRE -128 -128 -128 -176
WIRE 544 -128 544 -176
WIRE 144 -32 128 -32
WIRE 208 -32 208 -80
WIRE 240 -32 240 -80
WIRE 320 -32 304 -32
WIRE -128 -16 -128 -48
WIRE 544 -16 544 -48
WIRE 128 32 128 -32
WIRE 144 32 128 32
WIRE 208 32 208 -32
WIRE 240 32 240 -32
WIRE 320 32 320 -32
WIRE 320 32 304 32
WIRE 128 48 128 32
WIRE 320 48 320 32
WIRE -112 64 -272 64
WIRE -112 96 -112 64
WIRE -16 96 -112 96
WIRE 96 96 64 96
WIRE -272 112 -272 64
WIRE -112 112 -112 96
WIRE 208 112 208 32
WIRE 240 112 240 32
WIRE 96 128 96 96
WIRE 160 128 96 128
WIRE 160 144 160 128
WIRE 176 144 160 144
WIRE 432 144 272 144
WIRE 176 176 160 176
WIRE 432 176 480 144
WIRE 432 176 272 176
WIRE 480 176 432 144
WIRE 160 192 160 176
WIRE 160 192 96 192
WIRE -272 224 -272 192
WIRE -112 224 -112 192
WIRE -16 224 -112 224
WIRE 96 224 96 192
WIRE 96 224 64 224
WIRE -32 304 -112 224
WIRE 208 304 208 208
WIRE 208 304 -32 304
WIRE 208 496 208 304
WIRE 240 496 240 208
FLAG 128 48 0
FLAG 320 48 0
FLAG 208 496 0
FLAG 240 496 0
FLAG -128 -16 0
FLAG 544 -16 0
FLAG -272 224 0
FLAG -128 -176 +3.3
FLAG 544 -176 +3.3_ISO
FLAG 208 -80 +3.3
FLAG 240 -80 +3.3_ISO
SYMBOL AutoGenerated\\AMC1300 224 160 R0
WINDOW 0 62 -45 Bottom 2
WINDOW 3 88 43 Top 2
SYMATTR InstName U1
SYMBOL cap 80 128 R0
SYMATTR InstName C1
SYMATTR Value 10n
SYMBOL res 80 80 R90
WINDOW 0 0 56 VBottom 2
WINDOW 3 32 56 VTop 2
SYMATTR InstName R1
SYMATTR Value 10
SYMBOL res 80 208 R90
WINDOW 0 0 56 VBottom 2
WINDOW 3 32 56 VTop 2
SYMATTR InstName R2
SYMATTR Value 10
SYMBOL res -96 208 R180
WINDOW 0 36 76 Left 2
WINDOW 3 36 40 Left 2
SYMATTR InstName SHUNT
SYMATTR Value 10m
SYMBOL cap 208 -48 R90
WINDOW 0 2 66 VBottom 2
WINDOW 3 -29 19 VTop 2
SYMATTR InstName C2
SYMATTR Value 1µ
SYMBOL cap 208 16 R90
WINDOW 0 1 62 VBottom 2
WINDOW 3 -27 15 VTop 2
SYMATTR InstName C3
SYMATTR Value 100n
SYMBOL cap 304 -48 R90
WINDOW 0 3 48 VBottom 2
WINDOW 3 -25 -1 VTop 2
SYMATTR InstName C4
SYMATTR Value 1µ
SYMBOL cap 304 16 R90
WINDOW 0 2 48 VBottom 2
WINDOW 3 -25 0 VTop 2
SYMATTR InstName C5
SYMATTR Value 100n
SYMBOL voltage -128 -144 R0
WINDOW 123 0 0 Left 0
WINDOW 39 0 0 Left 0
SYMATTR InstName VDD
SYMATTR Value 3.3
SYMBOL voltage 544 -144 R0
WINDOW 123 0 0 Left 0
WINDOW 39 0 0 Left 0
SYMATTR InstName VDD_ISO
SYMATTR Value 3.3
SYMBOL current -272 192 R180
WINDOW 0 24 80 Left 2
WINDOW 3 24 0 Left 2
WINDOW 123 0 0 Left 0
WINDOW 39 0 0 Left 0
SYMATTR InstName I1
SYMATTR Value 5
TEXT -320 360 Left 2 !.tran 1m uic
TEXT 256 240 Left 2 ;gain = 8.2\nmax 250mV input
