Version 4
SHEET 1 1320 688
WIRE -80 16 -96 16
WIRE 0 16 -16 16
WIRE -528 32 -608 32
WIRE -608 48 -608 32
WIRE -528 64 -528 32
WIRE -96 64 -96 16
WIRE -80 64 -96 64
WIRE 0 64 0 16
WIRE 0 64 -16 64
WIRE 16 64 0 64
WIRE 16 80 16 64
WIRE 32 80 16 80
WIRE 464 80 416 80
WIRE 496 80 464 80
WIRE 592 80 560 80
WIRE -96 96 -96 64
WIRE 16 96 -96 96
WIRE 16 112 16 96
WIRE 32 112 16 112
WIRE 592 112 592 80
WIRE 592 112 416 112
WIRE -96 128 -96 96
WIRE -80 128 -96 128
WIRE 0 128 0 64
WIRE 0 128 -16 128
WIRE 16 128 0 128
WIRE 16 160 16 128
WIRE 32 160 16 160
WIRE 464 160 464 80
WIRE 464 160 416 160
WIRE -96 176 -96 128
WIRE -80 176 -96 176
WIRE 0 176 -16 176
WIRE -528 192 -528 144
WIRE -480 192 -528 192
WIRE -368 192 -400 192
WIRE -256 192 -368 192
WIRE 0 192 0 176
WIRE 32 192 0 192
WIRE 464 192 416 192
WIRE 544 192 464 192
WIRE 640 192 544 192
WIRE 944 192 944 176
WIRE -528 208 -528 192
WIRE -368 224 -368 192
WIRE -96 224 -96 176
WIRE -80 224 -96 224
WIRE 0 224 0 192
WIRE 0 224 -16 224
WIRE -256 240 -256 192
WIRE 32 240 -256 240
WIRE 640 240 416 240
WIRE 672 240 640 240
WIRE 32 272 -256 272
WIRE 640 272 416 272
WIRE 672 272 720 240
WIRE 672 272 640 272
WIRE 720 272 672 240
WIRE 944 288 944 272
WIRE -96 304 -96 224
WIRE 32 304 -96 304
WIRE 464 304 464 256
WIRE 464 304 416 304
WIRE 544 304 544 256
WIRE 544 304 464 304
WIRE 592 304 592 112
WIRE 592 304 544 304
WIRE -528 320 -528 288
WIRE -480 320 -528 320
WIRE -368 320 -368 288
WIRE -368 320 -400 320
WIRE -256 320 -256 272
WIRE -256 320 -368 320
WIRE -480 368 -528 320
WIRE -96 368 -96 304
WIRE -96 368 -480 368
WIRE -96 496 -96 368
WIRE 592 496 592 304
FLAG 592 496 0
FLAG 944 288 0
FLAG 944 176 +5
FLAG -608 48 0
FLAG -96 496 0
FLAG 640 192 +5
FLAG 640 240 outp
FLAG 640 272 outn
SYMBOL res -544 192 R0
SYMATTR InstName R1
SYMATTR Value 8m
SYMBOL res -384 176 R90
WINDOW 0 0 56 VBottom 2
WINDOW 3 32 56 VTop 2
SYMATTR InstName R2
SYMATTR Value 10
SYMBOL res -384 304 R90
WINDOW 0 0 56 VBottom 2
WINDOW 3 32 56 VTop 2
SYMATTR InstName R3
SYMATTR Value 10
SYMBOL cap -384 224 R0
SYMATTR InstName C1
SYMATTR Value 10n
SYMBOL cap -16 0 R90
WINDOW 0 8 59 VBottom 2
WINDOW 3 -20 6 VTop 2
SYMATTR InstName C2
SYMATTR Value 1µ
SYMBOL cap -16 48 R90
WINDOW 0 11 60 VBottom 2
WINDOW 3 -17 7 VTop 2
SYMATTR InstName C3
SYMATTR Value 1n
SYMBOL cap -16 112 R90
WINDOW 0 16 54 VBottom 2
WINDOW 3 -12 -3 VTop 2
SYMATTR InstName C4
SYMATTR Value 100n
SYMBOL cap -80 192 R270
WINDOW 0 16 7 VTop 2
WINDOW 3 46 66 VBottom 2
SYMATTR InstName C5
SYMATTR Value 100n
SYMBOL cap -80 240 R270
WINDOW 0 19 10 VTop 2
WINDOW 3 45 55 VBottom 2
SYMATTR InstName C6
SYMATTR Value 1n
SYMBOL cap 448 192 R0
SYMATTR InstName C7
SYMATTR Value 1n
SYMBOL cap 528 192 R0
SYMATTR InstName C8
SYMATTR Value 1µ
SYMBOL cap 560 64 R90
WINDOW 0 10 62 VBottom 2
WINDOW 3 -19 -4 VTop 2
SYMATTR InstName C9
SYMATTR Value 100n
SYMBOL current -528 64 R0
WINDOW 123 0 0 Left 0
WINDOW 39 0 0 Left 0
SYMATTR InstName I1
SYMATTR Value {I}
SYMBOL voltage 944 176 R0
WINDOW 123 0 0 Left 0
WINDOW 39 0 0 Left 0
SYMATTR InstName V1
SYMATTR Value 3.3
SYMBOL AutoGenerated\\AMC3301 224 208 R0
SYMATTR InstName U1
TEXT -560 608 Left 2 !.tran 0 10m 1m startup
TEXT -560 640 Left 2 !.step param I list 5 2 1 750m 500m 200m 100m
TEXT -560 672 Left 2 !.meas TRAN VOUT AVG V(outp)-V(outn)
