Version 4
SHEET 1 888 680
WIRE -64 -96 -112 -96
WIRE 32 -96 0 -96
WIRE -112 0 -112 -96
WIRE -80 0 -112 0
WIRE 32 0 32 -96
WIRE 32 0 0 0
WIRE -112 32 -112 0
WIRE 32 32 32 0
WIRE 112 96 48 96
WIRE 176 96 112 96
WIRE 336 96 176 96
WIRE 464 96 416 96
WIRE 576 96 464 96
WIRE 688 96 576 96
WIRE 736 96 688 96
WIRE -224 112 -480 112
WIRE 176 112 176 96
WIRE 576 144 576 96
WIRE 736 144 736 96
WIRE -480 160 -480 112
WIRE 112 160 112 96
WIRE 464 160 464 96
WIRE -224 176 -224 112
WIRE -144 176 -224 176
WIRE 48 176 48 96
WIRE 48 176 -32 176
WIRE 176 192 176 176
WIRE 256 192 176 192
WIRE -144 208 -224 208
WIRE 48 208 -32 208
WIRE 176 208 176 192
WIRE 256 240 256 192
WIRE -480 288 -480 240
WIRE -224 288 -224 208
WIRE -224 288 -480 288
WIRE 48 288 48 208
WIRE 112 288 112 224
WIRE 112 288 48 288
WIRE 176 288 176 272
WIRE 176 288 112 288
WIRE 336 288 176 288
WIRE 464 288 464 224
WIRE 464 288 416 288
WIRE 576 288 576 208
WIRE 576 288 464 288
WIRE 688 288 576 288
WIRE 736 288 736 224
WIRE 736 288 688 288
WIRE -480 336 -480 288
FLAG -480 336 0
FLAG -112 32 0
FLAG 32 32 COM
FLAG 256 240 COM
FLAG 688 96 Line
FLAG 688 288 Return
SYMBOL ind 320 112 R270
WINDOW 0 32 56 VTop 2
WINDOW 3 5 56 VBottom 2
SYMATTR InstName L1
SYMATTR Value 4.9µ
SYMATTR SpiceLine Ipk=10 Rser=14.5m Cpar=1.65e-12
SYMBOL voltage -480 144 R0
WINDOW 123 24 124 Left 2
WINDOW 39 24 44 Left 2
SYMATTR Value2 AC 1
SYMATTR SpiceLine Rser=100m
SYMATTR InstName V1
SYMATTR Value ""
SYMBOL cap 560 144 R0
SYMATTR InstName Cd
SYMATTR Value 80µ
SYMATTR SpiceLine Rser=1
SYMBOL AutoGenerated\\CMB_L_744824622_2m2 -80 208 R0
WINDOW 3 2 107 Top 2
SYMATTR InstName U1
SYMBOL cap 0 -112 R90
WINDOW 0 0 32 VBottom 2
WINDOW 3 32 32 VTop 2
SYMATTR InstName C3
SYMATTR Value 10p
SYMBOL res 16 -16 R90
WINDOW 0 0 56 VBottom 2
WINDOW 3 32 56 VTop 2
SYMATTR InstName R1
SYMATTR Value 10G
SYMBOL ind 320 304 R270
WINDOW 0 32 56 VTop 2
WINDOW 3 5 56 VBottom 2
SYMATTR InstName L2
SYMATTR Value 4.9µ
SYMATTR SpiceLine Ipk=10 Rser=14.5m Cpar=1.65e-12
SYMBOL cap 96 160 R0
SYMATTR InstName C1
SYMATTR Value 2n
SYMATTR SpiceLine Lser=100p
SYMBOL cap 160 112 R0
SYMATTR InstName C2
SYMATTR Value 2n
SYMATTR SpiceLine Lser=100p
SYMBOL cap 160 208 R0
SYMATTR InstName C4
SYMATTR Value 2n
SYMATTR SpiceLine Lser=100p
SYMBOL cap 448 160 R0
SYMATTR InstName C5
SYMATTR Value 15µ
SYMATTR SpiceLine Lser=100p
TEXT -488 528 Left 2 !.ac dec 10000 1 1g
TEXT 584 224 Left 2 ;ESR=1R
TEXT 344 0 Left 2 ;DCR=14.5m\nCp=1.65e-12
