Version 4
SHEET 1 1780 680
WIRE 352 48 64 48
WIRE 496 48 352 48
WIRE 768 48 496 48
WIRE 864 48 768 48
WIRE 1072 48 1056 48
WIRE 496 64 496 48
WIRE 768 112 768 48
WIRE 1120 112 1072 112
WIRE 1264 112 1200 112
WIRE 1488 112 1264 112
WIRE 64 128 64 48
WIRE 352 160 352 48
WIRE 496 160 496 128
WIRE 640 160 496 160
WIRE 736 160 736 112
WIRE 736 160 640 160
WIRE 1264 160 1264 112
WIRE 1264 160 1184 160
WIRE 1264 176 1264 160
WIRE 496 208 496 160
WIRE 640 208 640 160
WIRE 1184 208 1184 160
WIRE 1232 208 1184 208
WIRE 1072 240 1072 112
WIRE 1184 240 1184 208
WIRE 64 320 64 208
WIRE 352 320 352 224
WIRE 352 320 64 320
WIRE 496 320 496 288
WIRE 496 320 352 320
WIRE 640 320 640 272
WIRE 640 320 496 320
WIRE 768 320 768 160
WIRE 768 320 640 320
WIRE 1072 368 1072 320
WIRE 1184 368 1184 320
WIRE 1184 368 1072 368
WIRE 1264 368 1264 240
WIRE 1264 368 1184 368
WIRE 64 384 64 320
WIRE 1264 416 1264 368
FLAG 64 384 0
FLAG 1056 48 out
FLAG 1264 416 0
SYMBOL voltage 64 112 R0
WINDOW 123 0 0 Left 0
WINDOW 39 0 0 Left 0
SYMATTR InstName V1
SYMATTR Value 15
SYMBOL cap 336 160 R0
SYMATTR InstName C1
SYMATTR Value 100n
SYMBOL zener 512 128 R180
WINDOW 0 24 64 Left 2
WINDOW 3 24 0 Left 2
SYMATTR InstName D1
SYMATTR Value TFZV18B
SYMATTR Description Diode
SYMATTR Type diode
SYMBOL res 480 192 R0
SYMATTR InstName R1
SYMATTR Value 120
SYMBOL cap 624 208 R0
SYMATTR InstName C2
SYMATTR Value 100n
SYMBOL AutoGenerated\\TL431 1264 208 R0
WINDOW 0 54 -13 Bottom 2
WINDOW 3 53 11 Top 2
SYMATTR InstName D2
SYMBOL voltage 1184 224 R0
WINDOW 123 0 0 Left 0
WINDOW 39 0 0 Left 0
SYMATTR InstName V2
SYMATTR Value 5
SYMBOL voltage 1072 224 R0
WINDOW 123 0 0 Left 0
WINDOW 39 0 0 Left 0
SYMATTR InstName V3
SYMATTR Value 10
SYMBOL res 1216 96 R90
WINDOW 0 0 56 VBottom 2
WINDOW 3 32 56 VTop 2
SYMATTR InstName R2
SYMATTR Value 1k
TEXT 56 464 Left 2 !;.tran 1m\n.dc V1 0 50 0.01
