Version 4
SHEET 1 1636 844
WIRE 528 80 528 64
WIRE 608 80 608 64
WIRE 688 80 688 64
WIRE 768 80 768 64
WIRE 528 192 528 160
WIRE 608 192 608 160
WIRE 688 192 688 160
WIRE 768 192 768 160
WIRE 336 400 256 400
WIRE 480 400 416 400
WIRE 624 400 480 400
WIRE 784 400 704 400
WIRE 560 496 560 464
WIRE 480 544 480 400
WIRE 528 544 480 544
WIRE 784 544 784 400
WIRE 784 544 688 544
WIRE 960 544 784 544
WIRE 1008 544 960 544
WIRE 528 576 256 576
WIRE 528 608 480 608
WIRE 784 608 688 608
WIRE 960 608 784 608
WIRE 1008 608 960 608
WIRE 256 624 256 576
WIRE 560 688 560 656
WIRE 256 736 256 688
WIRE 336 736 256 736
WIRE 480 736 480 608
WIRE 480 736 416 736
WIRE 624 736 480 736
WIRE 784 736 784 608
WIRE 784 736 704 736
WIRE 256 768 256 736
FLAG 528 192 0
FLAG 608 192 0
FLAG 688 192 0
FLAG 768 192 0
FLAG 528 64 +
FLAG 608 64 -
FLAG 688 64 ref
FLAG 768 64 in
FLAG 256 768 0
FLAG 256 400 in
FLAG 560 464 +
FLAG 560 688 0
FLAG 960 544 p
FLAG 960 608 n
SYMBOL voltage 528 64 R0
WINDOW 123 0 0 Left 0
WINDOW 39 0 0 Left 0
SYMATTR InstName V1
SYMATTR Value 5
SYMBOL voltage 608 64 R0
WINDOW 123 0 0 Left 0
WINDOW 39 0 0 Left 0
SYMATTR InstName V2
SYMATTR Value -5
SYMBOL voltage 688 64 R0
WINDOW 123 0 0 Left 0
WINDOW 39 0 0 Left 0
SYMATTR InstName V3
SYMATTR Value 5
SYMBOL voltage 768 64 R0
WINDOW 123 0 0 Left 0
WINDOW 39 0 0 Left 0
SYMATTR InstName V4
SYMATTR Value PULSE(3 2 0 5u 5u 0 10u)
SYMBOL OpAmps\\LTC6362 592 576 R0
SYMATTR InstName U1
SYMBOL res 432 384 R90
WINDOW 0 0 56 VBottom 2
WINDOW 3 32 56 VTop 2
SYMATTR InstName R3
SYMATTR Value 1k
SYMBOL res 432 720 R90
WINDOW 0 0 56 VBottom 2
WINDOW 3 32 56 VTop 2
SYMATTR InstName R4
SYMATTR Value 1k
SYMBOL res 720 720 R90
WINDOW 0 0 56 VBottom 2
WINDOW 3 32 56 VTop 2
SYMATTR InstName R5
SYMATTR Value 1k
SYMBOL res 720 384 R90
WINDOW 0 0 56 VBottom 2
WINDOW 3 32 56 VTop 2
SYMATTR InstName R6
SYMATTR Value 1k
SYMBOL cap 272 688 R180
WINDOW 0 24 56 Left 2
WINDOW 3 24 8 Left 2
SYMATTR InstName C1
SYMATTR Value 100n
TEXT -112 336 Left 2 !.tran 100u
