Version 4
SHEET 1 1696 680
WIRE 416 -16 192 -16
WIRE 736 -16 480 -16
WIRE 544 80 544 64
WIRE -64 128 -128 128
WIRE 48 128 16 128
WIRE 80 128 48 128
WIRE 192 128 192 -16
WIRE 192 128 160 128
WIRE 224 128 192 128
WIRE 368 128 304 128
WIRE 512 128 368 128
WIRE 48 160 48 128
WIRE 368 160 368 128
WIRE 736 160 736 -16
WIRE 736 160 656 160
WIRE 848 160 736 160
WIRE 512 192 448 192
WIRE -688 224 -688 208
WIRE 544 256 544 240
WIRE -128 288 -128 128
WIRE 48 288 48 224
WIRE 368 288 368 224
WIRE -688 336 -688 304
WIRE 448 336 448 192
WIRE 736 336 736 160
WIRE 736 336 448 336
WIRE -128 464 -128 368
FLAG -688 336 0
FLAG -128 464 0
FLAG -688 208 +5
FLAG -128 128 in
FLAG 368 288 0
FLAG 544 256 +5
FLAG 544 64 0
FLAG 48 288 0
FLAG 848 160 out
SYMBOL voltage -688 208 R0
WINDOW 123 0 0 Left 0
WINDOW 39 0 0 Left 0
SYMATTR InstName V1
SYMATTR Value 5
SYMBOL voltage -128 272 R0
WINDOW 123 24 124 Left 2
WINDOW 39 0 0 Left 0
SYMATTR Value2 AC 1
SYMATTR InstName V2
SYMATTR Value SINE(2.5 2.5 10e5 0 0 0)
SYMBOL res 32 112 R90
WINDOW 0 0 56 VBottom 2
WINDOW 3 32 56 VTop 2
SYMATTR InstName R1
SYMATTR Value {R}
SYMBOL res 176 112 R90
WINDOW 0 0 56 VBottom 2
WINDOW 3 32 56 VTop 2
SYMATTR InstName R2
SYMATTR Value {R}
SYMBOL cap 32 160 R0
SYMATTR InstName C1
SYMATTR Value {C}
SYMBOL cap 352 160 R0
SYMATTR InstName C2
SYMATTR Value {C}
SYMBOL OpAmps\\LTC6262 544 160 M180
SYMATTR InstName U1
SYMBOL res 320 112 R90
WINDOW 0 0 56 VBottom 2
WINDOW 3 32 56 VTop 2
SYMATTR InstName R3
SYMATTR Value {R}
SYMBOL cap 480 -32 R90
WINDOW 0 0 32 VBottom 2
WINDOW 3 32 32 VTop 2
SYMATTR InstName C3
SYMATTR Value {C}
TEXT -208 568 Left 2 !;.tran 1m\n.ac dec 10000 1 1G
TEXT 320 560 Left 2 !.param R=50\n.param C=320p
