Version 4
SHEET 1 1088 680
WIRE -720 -64 -848 -64
WIRE -592 -64 -720 -64
WIRE -592 -32 -592 -64
WIRE -720 -16 -720 -64
WIRE -80 32 -160 32
WIRE 0 32 -16 32
WIRE -720 80 -720 48
WIRE -592 80 -592 48
WIRE -592 80 -720 80
WIRE -160 80 -160 32
WIRE -80 80 -160 80
WIRE 0 80 0 32
WIRE 0 80 -16 80
WIRE 64 80 0 80
WIRE 496 80 448 80
WIRE 560 80 496 80
WIRE 688 80 624 80
WIRE -592 112 -592 80
WIRE -160 112 -160 80
WIRE 64 112 -160 112
WIRE 688 112 688 80
WIRE 688 112 448 112
WIRE -720 128 -720 80
WIRE -848 144 -848 -64
WIRE -160 160 -160 112
WIRE -80 160 -160 160
WIRE 0 160 0 80
WIRE 0 160 -16 160
WIRE 544 160 448 160
WIRE 800 160 800 64
WIRE 800 160 624 160
WIRE 0 208 0 160
WIRE 64 208 0 208
WIRE 496 208 496 80
WIRE 496 208 448 208
WIRE 1024 208 1024 176
WIRE -720 224 -720 192
WIRE -592 224 -592 192
WIRE -592 224 -720 224
WIRE -544 224 -592 224
WIRE -352 224 -464 224
WIRE -240 224 -352 224
WIRE -160 224 -160 160
WIRE -80 224 -160 224
WIRE 0 224 -16 224
WIRE 0 240 0 224
WIRE 64 240 0 240
WIRE 512 240 448 240
WIRE 592 240 512 240
WIRE 800 240 592 240
WIRE -592 256 -592 224
WIRE -352 256 -352 224
WIRE -720 272 -720 224
WIRE -160 272 -160 224
WIRE -80 272 -160 272
WIRE 0 272 0 240
WIRE 0 272 -16 272
WIRE -240 288 -240 224
WIRE 64 288 -240 288
WIRE 736 288 448 288
WIRE 800 288 736 288
WIRE 64 320 -240 320
WIRE 736 320 448 320
WIRE 800 320 848 288
WIRE 800 320 736 320
WIRE 848 320 800 288
WIRE 1024 336 1024 288
WIRE -160 352 -160 272
WIRE 64 352 -160 352
WIRE 512 352 512 304
WIRE 512 352 448 352
WIRE 592 352 592 304
WIRE 592 352 512 352
WIRE 688 352 688 112
WIRE 688 352 592 352
WIRE -720 368 -720 336
WIRE -592 368 -592 336
WIRE -592 368 -720 368
WIRE -576 368 -592 368
WIRE -480 368 -496 368
WIRE -352 368 -352 320
WIRE -352 368 -400 368
WIRE -240 368 -240 320
WIRE -240 368 -352 368
WIRE -848 528 -848 224
WIRE -592 528 -592 368
WIRE -160 528 -160 352
WIRE 688 528 688 352
FLAG -592 528 0
FLAG -848 528 0
FLAG -160 528 0
FLAG 1024 336 0
FLAG 1024 176 +5
FLAG 800 240 +5
FLAG 688 528 0
FLAG 800 64 +3.3
FLAG 736 288 outp
FLAG 736 320 outn
SYMBOL res -576 64 R180
WINDOW 0 36 76 Left 2
WINDOW 3 36 40 Left 2
SYMATTR InstName R1
SYMATTR Value 1Meg
SYMBOL res -576 208 R180
WINDOW 0 36 76 Left 2
WINDOW 3 36 40 Left 2
SYMATTR InstName R2
SYMATTR Value 1Meg
SYMBOL res -576 352 R180
WINDOW 0 36 76 Left 2
WINDOW 3 36 40 Left 2
SYMATTR InstName R3
SYMATTR Value 16.5k
SYMBOL res -592 384 R270
WINDOW 0 32 56 VTop 2
WINDOW 3 0 56 VBottom 2
SYMATTR InstName R3p
SYMATTR Value 16.5k
SYMBOL res -448 208 R90
WINDOW 0 0 56 VBottom 2
WINDOW 3 32 56 VTop 2
SYMATTR InstName RF1
SYMATTR Value 10
SYMBOL res -384 352 R90
WINDOW 0 0 56 VBottom 2
WINDOW 3 32 56 VTop 2
SYMATTR InstName RF2
SYMATTR Value 10
SYMBOL cap -368 256 R0
SYMATTR InstName CF
SYMATTR Value 10n
SYMBOL voltage -848 128 R0
WINDOW 123 0 0 Left 0
WINDOW 39 0 0 Left 0
WINDOW 3 -60 99 Left 2
SYMATTR Value {V}
SYMATTR InstName V1
SYMBOL cap -16 16 R90
WINDOW 0 3 56 VBottom 2
WINDOW 3 -27 13 VTop 2
SYMATTR InstName C2
SYMATTR Value 1µ
SYMBOL cap -16 64 R90
WINDOW 0 10 56 VBottom 2
WINDOW 3 -20 13 VTop 2
SYMATTR InstName C3
SYMATTR Value 1n
SYMBOL cap -16 144 R90
WINDOW 0 8 57 VBottom 2
WINDOW 3 -19 9 VTop 2
SYMATTR InstName C1
SYMATTR Value 100n
SYMBOL cap 624 64 R90
WINDOW 0 3 58 VBottom 2
WINDOW 3 -26 11 VTop 2
SYMATTR InstName C4
SYMATTR Value 100n
SYMBOL cap -16 208 R90
WINDOW 0 9 56 VBottom 2
WINDOW 3 -19 11 VTop 2
SYMATTR InstName C5
SYMATTR Value 100n
SYMBOL cap -16 256 R90
WINDOW 0 9 58 VBottom 2
WINDOW 3 -19 12 VTop 2
SYMATTR InstName C6
SYMATTR Value 1n
SYMBOL cap 496 240 R0
SYMATTR InstName C8
SYMATTR Value 1n
SYMBOL cap 576 240 R0
SYMATTR InstName C9
SYMATTR Value 1µ
SYMBOL voltage 1024 192 R0
WINDOW 123 0 0 Left 0
WINDOW 39 0 0 Left 0
SYMATTR InstName V2
SYMATTR Value 5
SYMBOL AutoGenerated\\AMC3330 256 224 R0
WINDOW 0 8 -178 Bottom 2
WINDOW 3 10 159 Top 2
SYMATTR InstName U1
SYMBOL res 640 144 R90
WINDOW 0 0 56 VBottom 2
WINDOW 3 32 56 VTop 2
SYMATTR InstName R4
SYMATTR Value 47k
SYMBOL cap -736 -16 R0
SYMATTR InstName C7
SYMATTR Value 10n
SYMBOL cap -736 128 R0
SYMATTR InstName C10
SYMATTR Value 1n
SYMBOL cap -736 272 R0
SYMATTR InstName C11
SYMATTR Value 1n
TEXT -864 640 Left 2 !.tran 15m
