Version 4
SHEET 1 880 680
WIRE -112 -272 -112 -304
WIRE 560 -272 560 -304
WIRE -112 -160 -112 -192
WIRE 560 -160 560 -192
WIRE 0 -128 -192 -128
WIRE 0 -112 0 -128
WIRE 160 -16 144 -16
WIRE 224 -16 224 -64
WIRE 256 -16 256 -64
WIRE 336 -16 320 -16
WIRE -192 0 -192 -128
WIRE 0 0 0 -32
WIRE 144 32 144 -16
WIRE 160 32 144 32
WIRE 224 32 224 -16
WIRE 256 32 256 -16
WIRE 336 32 336 -16
WIRE 336 32 320 32
WIRE 144 48 144 32
WIRE 336 48 336 32
WIRE 0 96 0 80
WIRE 128 96 0 96
WIRE 176 96 128 96
WIRE 0 112 0 96
WIRE 224 112 224 32
WIRE 256 112 256 32
WIRE 128 128 128 96
WIRE 176 144 176 96
WIRE 192 144 176 144
WIRE 416 144 288 144
WIRE 192 176 176 176
WIRE 416 176 464 144
WIRE 416 176 288 176
WIRE 464 176 416 144
WIRE 0 224 0 192
WIRE 128 224 128 192
WIRE 128 224 0 224
WIRE 176 224 176 176
WIRE 176 224 128 224
WIRE 224 224 224 208
WIRE 224 224 176 224
WIRE -192 272 -192 80
WIRE 224 288 224 224
WIRE 256 288 256 208
FLAG -192 272 0
FLAG 224 288 0
FLAG 256 288 0
FLAG -112 -160 0
FLAG 560 -160 0
FLAG -112 -304 +3.3
FLAG 560 -304 +3.3_ISO
FLAG 224 -64 +3.3
FLAG 256 -64 +3.3_ISO
FLAG 144 48 0
FLAG 336 48 0
SYMBOL AutoGenerated\\AMC1311 240 160 R0
WINDOW 0 76 -38 Bottom 2
WINDOW 3 91 44 Top 2
SYMATTR InstName U1
SYMBOL res -16 96 R0
SYMATTR InstName R3
SYMATTR Value 20k
SYMBOL res -16 -16 R0
SYMATTR InstName R2
SYMATTR Value 1Meg
SYMBOL res -16 -128 R0
SYMATTR InstName R1
SYMATTR Value 1Meg
SYMBOL voltage -192 -16 R0
WINDOW 123 0 0 Left 0
WINDOW 39 0 0 Left 0
SYMATTR InstName V1
SYMATTR Value 20
SYMBOL cap 112 128 R0
WINDOW 3 23 52 Left 2
SYMATTR InstName C1
SYMATTR Value 10n
SYMBOL cap 224 16 R90
WINDOW 0 5 62 VBottom 2
WINDOW 3 -24 17 VTop 2
SYMATTR InstName C2
SYMATTR Value 100n
SYMBOL cap 224 -32 R90
WINDOW 0 3 63 VBottom 2
WINDOW 3 -26 18 VTop 2
SYMATTR InstName C3
SYMATTR Value 1µ
SYMBOL cap 320 -32 R90
WINDOW 0 2 45 VBottom 2
WINDOW 3 -27 2 VTop 2
SYMATTR InstName C4
SYMATTR Value 1µ
SYMBOL cap 320 16 R90
WINDOW 0 5 45 VBottom 2
WINDOW 3 -23 1 VTop 2
SYMATTR InstName C5
SYMATTR Value 100n
SYMBOL voltage -112 -288 R0
WINDOW 123 0 0 Left 0
WINDOW 39 0 0 Left 0
SYMATTR InstName V2
SYMATTR Value 5
SYMBOL voltage 560 -288 R0
WINDOW 123 0 0 Left 0
WINDOW 39 0 0 Left 0
SYMATTR InstName V3
SYMATTR Value 5
TEXT -226 408 Left 2 !.tran 5m uic
TEXT 288 240 Left 2 ;gain = 1\nmax 2V input
